/*---------------------------------------------------------------------------*\
| =========                 |                                                 |
| \\      /  F ield         | OpenFOAM: The Open Source CFD Toolbox           |
|  \\    /   O peration     | Version:  2206                                  |
|   \\  /    A nd           | Website:  www.openfoam.com                      |
|    \\/     M anipulation  |                                                 |
\*---------------------------------------------------------------------------*/
Build  : _76d719d1e6-20220624 OPENFOAM=2206 version=v2206
Arch   : "LSB;label=32;scalar=64"
Exec   : snappyHexMesh -overwrite -parallel
Date   : Oct 08 2023
Time   : 05:39:36
Host   : gagan-Z97P-D3
PID    : 44659
I/O    : uncollated
Case   : /media/gagan/GH/Work/Shell-and-Tube-Heat-exchanger-OpenFOAM
nProcs : 4
Hosts  :
(
    (gagan-Z97P-D3 4)
)
Pstream initialized with:
    floatTransfer      : 0
    nProcsSimpleSum    : 0
    commsType          : nonBlocking
    polling iterations : 0
trapFpe: Floating point exception trapping enabled (FOAM_SIGFPE).
fileModificationChecking : Monitoring run-time modified files using timeStampMaster (fileModificationSkew 5, maxFileModificationPolls 20)
allowSystemOperations : Allowing user-supplied system call operations

// * * * * * * * * * * * * * * * * * * * * * * * * * * * * * * * * * * * * * //
Create time

Create mesh for time = 0

Read mesh in = 0.01 s

Overall mesh bounding box  : (-3.3 -0.5 -0.9) (3.4 0.5 1)
Relative tolerance         : 1e-06
Absolute matching distance : 7.035624e-06

Reading refinement surfaces.
Read refinement surfaces in = 0.01 s

Reading refinement shells.
Read refinement shells in = 0.01 s

Setting refinement level of surface to be consistent with shells.
For geometry baffles detected 0 uncached triangles out of 8862
For geometry cold_inlet detected 0 uncached triangles out of 144
For geometry cold_outlet detected 0 uncached triangles out of 144
For geometry exchanger detected 0 uncached triangles out of 4831
For geometry hot_inlet detected 0 uncached triangles out of 144
For geometry hot_outlet detected 0 uncached triangles out of 144
For geometry inlet_baffle detected 0 uncached triangles out of 2220
For geometry outlet_baffle detected 0 uncached triangles out of 2206
For geometry pipes detected 0 uncached triangles out of 20556
Checked shell refinement in = 0.12 s

Reading features.
Read edgeMesh baffles.eMesh
    points      : 8750
    edges       : 8750
    boundingBox : (-1.876369 -0.4883193 -0.4883194) (1.876369 0.4883193 0.4883194)

Refinement level according to distance to "baffles.eMesh" (8750 points, 8750 edges).
    level 0 for all cells within 0 metre.
Read edgeMesh cold_inlet.eMesh
    points      : 146
    edges       : 146
    boundingBox : (-2.255003 -0.1090868 0.9107834) (-2.036829 0.1090868 0.9107835)

Refinement level according to distance to "cold_inlet.eMesh" (146 points, 146 edges).
    level 0 for all cells within 0 metre.
Read edgeMesh cold_outlet.eMesh
    points      : 146
    edges       : 147
    boundingBox : (2.032754 -0.1090868 -0.8674133) (2.250927 0.1090868 -0.8674133)

Refinement level according to distance to "cold_outlet.eMesh" (146 points, 147 edges).
    level 0 for all cells within 0 metre.
Read edgeMesh exchanger.eMesh
    points      : 1423
    edges       : 1425
    boundingBox : (-3.264001 -0.4883193 -0.8674136) (3.303429 0.4883193 0.9107834)

Refinement level according to distance to "exchanger.eMesh" (1423 points, 1425 edges).
    level 0 for all cells within 0 metre.
Read edgeMesh hot_inlet.eMesh
    points      : 146
    edges       : 146
    boundingBox : (-2.866132 -0.1090868 0.9107834) (-2.647958 0.1090868 0.9107835)

Refinement level according to distance to "hot_inlet.eMesh" (146 points, 146 edges).
    level 0 for all cells within 0 metre.
Read edgeMesh hot_outlet.eMesh
    points      : 146
    edges       : 146
    boundingBox : (-2.866131 -0.1090868 -0.8674137) (-2.647957 0.1090868 -0.8674136)

Refinement level according to distance to "hot_outlet.eMesh" (146 points, 146 edges).
    level 0 for all cells within 0 metre.
Read edgeMesh inlet_baffle.eMesh
    points      : 2176
    edges       : 2176
    boundingBox : (-2.412475 -0.4883193 -0.4883195) (-2.412474 0.4883193 0.4883191)

Refinement level according to distance to "inlet_baffle.eMesh" (2176 points, 2176 edges).
    level 0 for all cells within 0 metre.
Read edgeMesh outlet_baffle.eMesh
    points      : 2176
    edges       : 2176
    boundingBox : (2.412474 -0.4883193 -0.4883191) (2.412475 0.4883193 0.4883195)

Refinement level according to distance to "outlet_baffle.eMesh" (2176 points, 2176 edges).
    level 0 for all cells within 0 metre.
Read edgeMesh pipes.eMesh
    points      : 4131
    edges       : 4131
    boundingBox : (-2.412475 -0.4591101 -0.3564376) (2.412475 0.4580045 0.3580296)

Refinement level according to distance to "pipes.eMesh" (4131 points, 4131 edges).
    level 0 for all cells within 0 metre.
Read features in = 0.04 s


Determining initial surface intersections
-----------------------------------------

Edge intersection testing:
    Number of edges             : 40323
    Number of edges to retest   : 0
    Number of intersected edges : 0
Edge intersection testing:
    Number of edges             : 40323
    Number of edges to retest   : 40323
    Number of intersected edges : 6554
Calculated surface intersections in = 0.04 s

Initial mesh : cells:12730  faces:40323  points:14960
Cells per refinement level:
    0	12730

Adding patches for surface regions
----------------------------------

Patch Type                Region                        
----- ----                ------                        
baffles:

1     wall                baffles                       
2     wall                baffles_slave                 

cold_inlet:

3     patch               cold_inlet                    

cold_outlet:

4     patch               cold_outlet                   

exchanger:

5     wall                exchanger                     

hot_inlet:

6     patch               hot_inlet                     

hot_outlet:

7     patch               hot_outlet                    

inlet_baffle:

8     wall                inlet_baffle                  

outlet_baffle:

9     wall                outlet_baffle                 

pipes:

10    wall                pipes                         

Added patches in = 0.02 s

Edge intersection testing:
    Number of edges             : 40323
    Number of edges to retest   : 0
    Number of intersected edges : 6554
Decomposition method scotch [4]

Refinement phase
----------------

Found point (0 0.023594 0.079448) in cell 1575 on processor 3

Feature refinement iteration 0
------------------------------

Marked for refinement due to explicit features             : 0 cells.
Determined cells to refine in = 0.03 s
Selected for feature refinement : 0 cells (out of 12730)
Stopping refining since too few cells selected.


Surface refinement iteration 0
------------------------------

Marked for refinement due to surface intersection          : 5932 cells.
Determined cells to refine in = 0.01 s
Selected for refinement : 5932 cells (out of 12730)
Edge intersection testing:
    Number of edges             : 171045
    Number of edges to retest   : 156050
    Number of intersected edges : 25220
Refined mesh in = 0.18 s
After refinement surface refinement iteration 0 : cells:54254  faces:171045  points:62666
Cells per refinement level:
    0	6798
    1	47456
Balanced mesh in = 0.24 s
After balancing surface refinement iteration 0 : cells:54254  faces:171045  points:62666
Cells per refinement level:
    0	6798
    1	47456

Surface refinement iteration 1
------------------------------

Marked for refinement due to surface intersection          : 33332 cells.
Determined cells to refine in = 0.02 s
Selected for refinement : 34318 cells (out of 54254)
Edge intersection testing:
    Number of edges             : 936927
    Number of edges to retest   : 921111
    Number of intersected edges : 106966
Refined mesh in = 1.01 s
After refinement surface refinement iteration 1 : cells:294480  faces:936927  points:346557
Cells per refinement level:
    0	5774
    1	22354
    2	266352
Skipping balancing since max unbalance 0.07011682 is less than allowable 0.1

Surface refinement iteration 2
------------------------------

Marked for refinement due to surface intersection          : 148388 cells.
Determined cells to refine in = 0.09 s
Selected for refinement : 157042 cells (out of 294480)
Edge intersection testing:
    Number of edges             : 4498479
    Number of edges to retest   : 4433438
    Number of intersected edges : 438394
Refined mesh in = 4.76 s
After refinement surface refinement iteration 2 : cells:1393774  faces:4498479  points:1709395
Cells per refinement level:
    0	5674
    1	14466
    2	187602
    3	1186032
Balanced mesh in = 5.71 s
After balancing surface refinement iteration 2 : cells:1393774  faces:4498479  points:1709395
Cells per refinement level:
    0	5674
    1	14466
    2	187602
    3	1186032

Surface refinement iteration 3
------------------------------

Marked for refinement due to surface intersection          : 606432 cells.
Determined cells to refine in = 0.27 s
Selected for refinement : 654594 cells (out of 1393774)
Edge intersection testing:
    Number of edges             : 19470225
    Number of edges to retest   : 18972934
    Number of intersected edges : 1739763
Refined mesh in = 20.37 s
After refinement surface refinement iteration 3 : cells:5975932  faces:19470225  points:7512024
Cells per refinement level:
    0	5590
    1	12700
    2	160610
    3	952424
    4	4844608
Skipping balancing since max unbalance 0.01358516 is less than allowable 0.1

Surface refinement iteration 4
------------------------------

Marked for refinement due to surface intersection          : 3728 cells.
Determined cells to refine in = 1.21 s
Selected for refinement : 4389 cells (out of 5975932)
Edge intersection testing:
    Number of edges             : 19567014
    Number of edges to retest   : 234505
    Number of intersected edges : 1748381
Refined mesh in = 8.54 s
After refinement surface refinement iteration 4 : cells:6006655  faces:19567014  points:7547163
Cells per refinement level:
    0	5586
    1	12682
    2	160403
    3	953552
    4	4874432
Skipping balancing since max unbalance 0.008401352 is less than allowable 0.1

Surface refinement iteration 5
------------------------------

Marked for refinement due to surface intersection          : 508 cells.
Determined cells to refine in = 1.19 s
Selected for refinement : 1101 cells (out of 6006655)
Edge intersection testing:
    Number of edges             : 19593621
    Number of edges to retest   : 71815
    Number of intersected edges : 1748583
Refined mesh in = 8.51 s
After refinement surface refinement iteration 5 : cells:6014362  faces:19593621  points:7558655
Cells per refinement level:
    0	5534
    1	12897
    2	161671
    3	955764
    4	4878496
Skipping balancing since max unbalance 0.007108986 is less than allowable 0.1

Surface refinement iteration 6
------------------------------

Marked for refinement due to surface intersection          : 62 cells.
Determined cells to refine in = 1.07 s
Selected for refinement : 82 cells (out of 6014362)
Edge intersection testing:
    Number of edges             : 19595421
    Number of edges to retest   : 6555
    Number of intersected edges : 1748699
Refined mesh in = 8.16 s
After refinement surface refinement iteration 6 : cells:6014936  faces:19595421  points:7559291
Cells per refinement level:
    0	5534
    1	12897
    2	161651
    3	955862
    4	4878992
Skipping balancing since max unbalance 0.007012543 is less than allowable 0.1

Surface refinement iteration 7
------------------------------

Marked for refinement due to surface intersection          : 8 cells.
Determined cells to refine in = 1.09 s
Selected for refinement : 8 cells (out of 6014936)
Stopping refining since too few cells selected.


Removing mesh beyond surface intersections
------------------------------------------

Setting cellZones according to locationsInMesh:
Location : (0 0.023594 0.079448)
    cellZone : none

For cellZone none found point (0 0.023594 0.079448) in global region 2 out of 3 regions.
Walking from known cellZones; crossing a faceZone face changes cellZone

--> FOAM Warning : 
    From void Foam::meshRefinement::nearestFace(const labelUList&, const Foam::bitSet&, Foam::autoPtr<Foam::mapDistribute>&, Foam::labelList&, Foam::label) const
    in file meshRefinement/meshRefinement.C at line 517
    Did not visit some faces, e.g. face 0 at (1.8 -0.45 -0.85)
Keeping all cells containing inside points
Selected for keeping : 3914723 cells.
Edge intersection testing:
    Number of edges             : 13371935
    Number of edges to retest   : 2234041
    Number of intersected edges : 1732539

Shell refinement iteration 0
----------------------------

Marked for refinement due to distance to explicit features : 0 cells.
Marked for refinement due to refinement shells             : 0 cells.
Determined cells to refine in = 14.3 s
Selected for internal refinement : 289134 cells (out of 3914723)
Edge intersection testing:
    Number of edges             : 19297607
    Number of edges to retest   : 11260076
    Number of intersected edges : 1740144
Refined mesh in = 17.76 s
After refinement shell refinement iteration 0 : cells:5938661  faces:19297607  points:7420759
Cells per refinement level:
    0	64
    1	2953
    2	26452
    3	267488
    4	5641704
Balanced mesh in = 22.36 s
After balancing shell refinement iteration 0 : cells:5938661  faces:19297607  points:7421704
Cells per refinement level:
    0	64
    1	2953
    2	26452
    3	267488
    4	5641704

Shell refinement iteration 1
----------------------------

Marked for refinement due to distance to explicit features : 0 cells.
Marked for refinement due to refinement shells             : 0 cells.
Determined cells to refine in = 2.14 s
Selected for internal refinement : 21545 cells (out of 5938661)
Edge intersection testing:
    Number of edges             : 19751693
    Number of edges to retest   : 1184354
    Number of intersected edges : 1745165
Refined mesh in = 10.04 s
After refinement shell refinement iteration 1 : cells:6089476  faces:19751693  points:7573810
Cells per refinement level:
    0	36
    1	2228
    2	25109
    3	327335
    4	5734768
Skipping balancing since max unbalance 0.02487964 is less than allowable 0.1

Shell refinement iteration 2
----------------------------

Marked for refinement due to distance to explicit features : 0 cells.
Marked for refinement due to refinement shells             : 0 cells.
Determined cells to refine in = 2.05 s
Selected for internal refinement : 729 cells (out of 6089476)
Edge intersection testing:
    Number of edges             : 19767014
    Number of edges to retest   : 48915
    Number of intersected edges : 1745165
Refined mesh in = 9.17 s
After refinement shell refinement iteration 2 : cells:6094579  faces:19767014  points:7578960
Cells per refinement level:
    0	12
    1	1964
    2	28649
    3	328058
    4	5735896
Skipping balancing since max unbalance 0.02529922 is less than allowable 0.1

Shell refinement iteration 3
----------------------------

Marked for refinement due to distance to explicit features : 0 cells.
Marked for refinement due to refinement shells             : 0 cells.
Determined cells to refine in = 2.07 s
Selected for internal refinement : 0 cells (out of 6094579)
Stopping refining since too few cells selected.


Dangling coarse cells refinement iteration 0
--------------------------------------------

Determined cells to refine in = 0.08 s
Selected for refinement : 14 cells (out of 6094579)
Edge intersection testing:
    Number of edges             : 19767224
    Number of edges to retest   : 1790
    Number of intersected edges : 1745165
Refined mesh in = 8.56 s
After refinement coarse cell refinement iteration 0 : cells:6094677  faces:19767224  points:7578988
Cells per refinement level:
    0	12
    1	1964
    2	28649
    3	328044
    4	5736008
Skipping balancing since max unbalance 0.02531915 is less than allowable 0.1

Dangling coarse cells refinement iteration 1
--------------------------------------------

Determined cells to refine in = 0.11 s
Selected for refinement : 0 cells (out of 6094677)
Stopping refining since too few cells selected.


Dangling coarse cells refinement iteration 0
--------------------------------------------

Determined cells to refine in = 0.07 s
Selected for refinement : 0 cells (out of 6094677)
Stopping refining since too few cells selected.


Refinement transition refinement iteration 0
--------------------------------------------

Determined cells to refine in = 0.12 s
Selected for refinement : 6 cells (out of 6094677)
Edge intersection testing:
    Number of edges             : 19767341
    Number of edges to retest   : 630
    Number of intersected edges : 1745147
Refined mesh in = 8.36 s
After refinement interface cell refinement iteration 0 : cells:6094719  faces:19767341  points:7579015
Cells per refinement level:
    0	12
    1	1964
    2	28643
    3	328092
    4	5736008
Skipping balancing since max unbalance 0.02533079 is less than allowable 0.1

Refinement transition refinement iteration 1
--------------------------------------------

Determined cells to refine in = 0.17 s
Selected for refinement : 0 cells (out of 6094719)
Stopping refining since too few cells selected.


Splitting mesh at surface intersections
---------------------------------------

Introducing baffles for 1745147 faces that are intersected by the surface.

Setting cellZones according to locationsInMesh:
Location : (0 0.023594 0.079448)
    cellZone : none

For cellZone none found point (0 0.023594 0.079448) in global region 0 out of 3 regions.
Walking from known cellZones; crossing a faceZone face changes cellZone

Edge intersection testing:
    Number of edges             : 21505020
    Number of edges to retest   : 10897846
    Number of intersected edges : 3482626
Created baffles in = 17.93 s


After introducing baffles : cells:6094719  faces:21505020  points:7579142
Cells per refinement level:
    0	12
    1	1964
    2	28643
    3	328092
    4	5736008

Introducing baffles to block off problem cells
----------------------------------------------

markFacesOnProblemCells : marked 3392542 additional internal faces to be converted into baffles.
Analyzed problem cells in = 4.79 s


Introducing baffles to delete problem cells.

